/*---------------------------------------------------------------------------*\
| =========                 |                                                 |
| \\      /  F ield         | OpenFOAM: The Open Source CFD Toolbox           |
|  \\    /   O peration     | Version:  4.1                                   |
|   \\  /    A nd           | Web:      www.OpenFOAM.org                      |
|    \\/     M anipulation  |                                                 |
\*---------------------------------------------------------------------------*/
Build  : 4.1-1e03d68d4f4e
Exec   : snappyHexMesh -overwrite
Date   : Nov 01 2016
Time   : 02:22:38
Host   : "ravil-K53SD"
PID    : 28851
Case   : /home/ravil/CAE/Projects/TestOne
nProcs : 1
sigFpe : Enabling floating point exception trapping (FOAM_SIGFPE).
fileModificationChecking : Monitoring run-time modified files using timeStampMaster
allowSystemOperations : Allowing user-supplied system call operations

// * * * * * * * * * * * * * * * * * * * * * * * * * * * * * * * * * * * * * //
Create time

Create mesh for time = 0

Read mesh in = 3.42 s

Overall mesh bounding box  : (-0.01 -0.01 -0.02) (0.15 0.05 0.02)
Relative tolerance         : 1e-06
Absolute matching distance : 1.75499e-07

Reading refinement surfaces.
Read refinement surfaces in = 0.03 s

Reading refinement shells.
Read refinement shells in = 0 s

Setting refinement level of surface to be consistent with shells.
Checked shell refinement in = 0 s

Reading features.
Read edgeMesh Inlet.eMesh
    points      : 46
    edges       : 46
    boundingBox : (0 0.00289778 -0.00349406) (0 0.0135 0.00349406)

Refinement level according to distance to "Inlet.eMesh" (46 points, 46 edges).
    level 0 for all cells within 0 metre.
Read edgeMesh Outlet.eMesh
    points      : 53
    edges       : 53
    boundingBox : (0.136008 0 -0.00983512) (0.136008 0.0379995 0.00983512)

Refinement level according to distance to "Outlet.eMesh" (53 points, 53 edges).
    level 0 for all cells within 0 metre.
Read edgeMesh Refinement-Wall-1.eMesh
    points      : 241
    edges       : 243
    boundingBox : (0 0.01304 -0.00983512) (0.0600084 0.0379995 0.00983512)

Refinement level according to distance to "Refinement-Wall-1.eMesh" (241 points, 243 edges).
    level 0 for all cells within 0 metre.
Read edgeMesh Refinement-Wall-2.eMesh
    points      : 478
    edges       : 480
    boundingBox : (0 0 -0.00427051) (0.07 0.0165 0.00427051)

Refinement level according to distance to "Refinement-Wall-2.eMesh" (478 points, 480 edges).
    level 0 for all cells within 0 metre.
Read edgeMesh Simetry.eMesh
    points      : 178
    edges       : 179
    boundingBox : (0 0 -0.00983512) (0.136008 0.0367052 0.00983512)

Refinement level according to distance to "Simetry.eMesh" (178 points, 179 edges).
    level 0 for all cells within 0 metre.
Read edgeMesh Simple-Walls.eMesh
    points      : 206
    edges       : 206
    boundingBox : (0.0600084 0.0367052 -0.00983512) (0.136008 0.038 0.00983512)

Refinement level according to distance to "Simple-Walls.eMesh" (206 points, 206 edges).
    level 0 for all cells within 0 metre.
Read edgeMesh Axis.eMesh
    points      : 2
    edges       : 1
    boundingBox : (0.07 0 0) (0.14 0 0)

Refinement level according to distance to "Axis.eMesh" (2 points, 1 edges).
    level 2 for all cells within 0 metre.
Read features in = 0.01 s


Determining initial surface intersections
-----------------------------------------

Edge intersection testing:
    Number of edges             : 1315500
    Number of edges to retest   : 1315500
    Number of intersected edges : 12282
Calculated surface intersections in = 3.41 s

Initial mesh : cells:432000  faces:1315500  points:451766
Cells per refinement level:
    0	432000

Adding patches for surface regions
----------------------------------

Patch Type                Region                        
----- ----                ------                        
Inlet:

1     wall                Inlet                         

Outlet:

2     wall                Outlet                        

Refinement-Wall-1:

3     wall                Refinement-Wall-1             

Refinement-Wall-2:

4     wall                Refinement-Wall-2             

Simetry:

5     wall                Simetry                       

Simple-Walls:

6     wall                Simple-Walls                  

Added patches in = 0.03 s

Selecting decompositionMethod none
Layer thickness specified as final layer and expansion ratio.

Refinement phase
----------------

Found point (0.101 0.0251 0.00021) in cell 216910 on processor 0

Feature refinement iteration 0
------------------------------

Marked for refinement due to explicit features             : 71 cells.
Determined cells to refine in = 6.79 s
Selected for feature refinement : 71 cells (out of 432000)
Edge intersection testing:
    Number of edges             : 1317420
    Number of edges to retest   : 3422
    Number of intersected edges : 12612
Refined mesh in = 2.2 s
After refinement feature refinement iteration 0 : cells:432497  faces:1317420  points:452765
Cells per refinement level:
    0	431929
    1	568

Feature refinement iteration 1
------------------------------

Marked for refinement due to explicit features             : 141 cells.
Determined cells to refine in = 6.75 s
Selected for feature refinement : 284 cells (out of 432497)
Edge intersection testing:
    Number of edges             : 1324671
    Number of edges to retest   : 11079
    Number of intersected edges : 13006
Refined mesh in = 2.12 s
After refinement feature refinement iteration 1 : cells:434485  faces:1324671  points:456186
Cells per refinement level:
    0	431786
    1	1571
    2	1128

Feature refinement iteration 2
------------------------------

Marked for refinement due to explicit features             : 0 cells.
Determined cells to refine in = 7.41 s
Selected for feature refinement : 0 cells (out of 434485)
Stopping refining since too few cells selected.


Surface refinement iteration 0
------------------------------

Marked for refinement due to surface intersection          : 1984 cells.
Marked for refinement due to curvature/regions             : 0 cells.
Determined cells to refine in = 0.1 s
Selected for refinement : 1984 cells (out of 434485)
Edge intersection testing:
    Number of edges             : 1371120
    Number of edges to retest   : 62876
    Number of intersected edges : 17189
Refined mesh in = 2.33 s
After refinement surface refinement iteration 0 : cells:448373  faces:1371120  points:475079
Cells per refinement level:
    0	429802
    1	17443
    2	1128

Surface refinement iteration 1
------------------------------

Marked for refinement due to surface intersection          : 7831 cells.
Marked for refinement due to curvature/regions             : 0 cells.
Determined cells to refine in = 0.12 s
Selected for refinement : 8985 cells (out of 448373)
Edge intersection testing:
    Number of edges             : 1576422
    Number of edges to retest   : 267516
    Number of intersected edges : 32842
Refined mesh in = 3.01 s
After refinement surface refinement iteration 1 : cells:511268  faces:1576422  points:555025
Cells per refinement level:
    0	428627
    1	19033
    2	63608

Surface refinement iteration 2
------------------------------

Marked for refinement due to surface intersection          : 1074 cells.
Marked for refinement due to curvature/regions             : 172 cells.
Determined cells to refine in = 0.26 s
Selected for refinement : 1311 cells (out of 511268)
Edge intersection testing:
    Number of edges             : 1606359
    Number of edges to retest   : 66105
    Number of intersected edges : 37614
Refined mesh in = 2.76 s
After refinement surface refinement iteration 2 : cells:520445  faces:1606359  points:566659
Cells per refinement level:
    0	428590
    1	18227
    2	72252
    3	1376

Surface refinement iteration 3
------------------------------

Marked for refinement due to surface intersection          : 4 cells.
Marked for refinement due to curvature/regions             : 32 cells.
Determined cells to refine in = 0.29 s
Selected for refinement : 61 cells (out of 520445)
Edge intersection testing:
    Number of edges             : 1607763
    Number of edges to retest   : 3947
    Number of intersected edges : 37638
Refined mesh in = 2.56 s
After refinement surface refinement iteration 3 : cells:520872  faces:1607763  points:567216
Cells per refinement level:
    0	428581
    1	18279
    2	72380
    3	1632

Surface refinement iteration 4
------------------------------

Marked for refinement due to surface intersection          : 2 cells.
Marked for refinement due to curvature/regions             : 0 cells.
Determined cells to refine in = 0.25 s
Selected for refinement : 2 cells (out of 520872)
Edge intersection testing:
    Number of edges             : 1607805
    Number of edges to retest   : 204
    Number of intersected edges : 37640
Refined mesh in = 2.51 s
After refinement surface refinement iteration 4 : cells:520886  faces:1607805  points:567230
Cells per refinement level:
    0	428581
    1	18277
    2	72396
    3	1632

Surface refinement iteration 5
------------------------------

Marked for refinement due to surface intersection          : 0 cells.
Marked for refinement due to curvature/regions             : 0 cells.
Determined cells to refine in = 0.26 s
Selected for refinement : 0 cells (out of 520886)
Stopping refining since too few cells selected.


Removing mesh beyond surface intersections
------------------------------------------

Found point (0.101 0.0251 0.00021) in global region 0 out of 1 regions.
Keeping all cells in region 0 containing point (0.101 0.0251 0.00021)
Selected for keeping : 520886 cells.
Edge intersection testing:
    Number of edges             : 1607805
    Number of edges to retest   : 0
    Number of intersected edges : 37640

Shell refinement iteration 0
----------------------------

Marked for refinement due to distance to explicit features : 0 cells.
Marked for refinement due to refinement shells             : 0 cells.
Determined cells to refine in = 10.13 s
Selected for internal refinement : 10868 cells (out of 520886)
Edge intersection testing:
    Number of edges             : 1850475
    Number of edges to retest   : 458524
    Number of intersected edges : 41986
Refined mesh in = 3.91 s
After refinement shell refinement iteration 0 : cells:596962  faces:1850475  points:657864
Cells per refinement level:
    0	425313
    1	37131
    2	130406
    3	4112

Shell refinement iteration 1
----------------------------

Marked for refinement due to distance to explicit features : 0 cells.
Marked for refinement due to refinement shells             : 0 cells.
Determined cells to refine in = 0.34 s
Selected for internal refinement : 2852 cells (out of 596962)
Edge intersection testing:
    Number of edges             : 1914030
    Number of edges to retest   : 181290
    Number of intersected edges : 44755
Refined mesh in = 3.46 s
After refinement shell refinement iteration 1 : cells:616926  faces:1914030  points:681613
Cells per refinement level:
    0	424391
    1	42767
    2	144136
    3	5632

Shell refinement iteration 2
----------------------------

Marked for refinement due to distance to explicit features : 0 cells.
Marked for refinement due to refinement shells             : 0 cells.
Determined cells to refine in = 0.38 s
Selected for internal refinement : 583 cells (out of 616926)
Edge intersection testing:
    Number of edges             : 1927437
    Number of edges to retest   : 40923
    Number of intersected edges : 45490
Refined mesh in = 3.4 s
After refinement shell refinement iteration 2 : cells:621007  faces:1927437  points:686885
Cells per refinement level:
    0	423962
    1	46183
    2	144126
    3	6736

Shell refinement iteration 3
----------------------------

Marked for refinement due to distance to explicit features : 0 cells.
Marked for refinement due to refinement shells             : 0 cells.
Determined cells to refine in = 0.39 s
Selected for internal refinement : 17 cells (out of 621007)
Edge intersection testing:
    Number of edges             : 1927812
    Number of edges to retest   : 1441
    Number of intersected edges : 45521
Refined mesh in = 3.13 s
After refinement shell refinement iteration 3 : cells:621126  faces:1927812  points:687027
Cells per refinement level:
    0	423959
    1	46200
    2	144175
    3	6792

Shell refinement iteration 4
----------------------------

Marked for refinement due to distance to explicit features : 0 cells.
Marked for refinement due to refinement shells             : 0 cells.
Determined cells to refine in = 0.39 s
Selected for internal refinement : 10 cells (out of 621126)
Edge intersection testing:
    Number of edges             : 1928037
    Number of edges to retest   : 677
    Number of intersected edges : 45521
Refined mesh in = 3.2 s
After refinement shell refinement iteration 4 : cells:621196  faces:1928037  points:687112
Cells per refinement level:
    0	423955
    1	46226
    2	144223
    3	6792

Shell refinement iteration 5
----------------------------

Marked for refinement due to distance to explicit features : 0 cells.
Marked for refinement due to refinement shells             : 0 cells.
Determined cells to refine in = 0.36 s
Selected for internal refinement : 7 cells (out of 621196)
Edge intersection testing:
    Number of edges             : 1928196
    Number of edges to retest   : 471
    Number of intersected edges : 45547
Refined mesh in = 3.16 s
After refinement shell refinement iteration 5 : cells:621245  faces:1928196  points:687173
Cells per refinement level:
    0	423954
    1	46228
    2	144271
    3	6792

Shell refinement iteration 6
----------------------------

Marked for refinement due to distance to explicit features : 0 cells.
Marked for refinement due to refinement shells             : 0 cells.
Determined cells to refine in = 0.38 s
Selected for internal refinement : 10 cells (out of 621245)
Edge intersection testing:
    Number of edges             : 1928421
    Number of edges to retest   : 677
    Number of intersected edges : 45547
Refined mesh in = 3.17 s
After refinement shell refinement iteration 6 : cells:621315  faces:1928421  points:687258
Cells per refinement level:
    0	423950
    1	46254
    2	144319
    3	6792

Shell refinement iteration 7
----------------------------

Marked for refinement due to distance to explicit features : 0 cells.
Marked for refinement due to refinement shells             : 0 cells.
Determined cells to refine in = 0.38 s
Selected for internal refinement : 7 cells (out of 621315)
Edge intersection testing:
    Number of edges             : 1928583
    Number of edges to retest   : 466
    Number of intersected edges : 45573
Refined mesh in = 3.07 s
After refinement shell refinement iteration 7 : cells:621364  faces:1928583  points:687322
Cells per refinement level:
    0	423949
    1	46256
    2	144367
    3	6792

Shell refinement iteration 8
----------------------------

Marked for refinement due to distance to explicit features : 0 cells.
Marked for refinement due to refinement shells             : 0 cells.
Determined cells to refine in = 0.36 s
Selected for internal refinement : 10 cells (out of 621364)
Edge intersection testing:
    Number of edges             : 1928808
    Number of edges to retest   : 677
    Number of intersected edges : 45573
Refined mesh in = 3.18 s
After refinement shell refinement iteration 8 : cells:621434  faces:1928808  points:687407
Cells per refinement level:
    0	423945
    1	46282
    2	144415
    3	6792

Shell refinement iteration 9
----------------------------

Marked for refinement due to distance to explicit features : 0 cells.
Marked for refinement due to refinement shells             : 0 cells.
Determined cells to refine in = 0.37 s
Selected for internal refinement : 7 cells (out of 621434)
Edge intersection testing:
    Number of edges             : 1928970
    Number of edges to retest   : 463
    Number of intersected edges : 45599
Refined mesh in = 3.27 s
After refinement shell refinement iteration 9 : cells:621483  faces:1928970  points:687471
Cells per refinement level:
    0	423944
    1	46284
    2	144463
    3	6792

Shell refinement iteration 10
----------------------------

Marked for refinement due to distance to explicit features : 0 cells.
Marked for refinement due to refinement shells             : 0 cells.
Determined cells to refine in = 0.48 s
Selected for internal refinement : 10 cells (out of 621483)
Edge intersection testing:
    Number of edges             : 1929195
    Number of edges to retest   : 677
    Number of intersected edges : 45599
Refined mesh in = 2.66 s
After refinement shell refinement iteration 10 : cells:621553  faces:1929195  points:687556
Cells per refinement level:
    0	423940
    1	46310
    2	144511
    3	6792

Shell refinement iteration 11
----------------------------

Marked for refinement due to distance to explicit features : 0 cells.
Marked for refinement due to refinement shells             : 0 cells.
Determined cells to refine in = 0.28 s
Selected for internal refinement : 7 cells (out of 621553)
Edge intersection testing:
    Number of edges             : 1929357
    Number of edges to retest   : 463
    Number of intersected edges : 45625
Refined mesh in = 2.65 s
After refinement shell refinement iteration 11 : cells:621602  faces:1929357  points:687620
Cells per refinement level:
    0	423939
    1	46312
    2	144559
    3	6792

Shell refinement iteration 12
----------------------------

Marked for refinement due to distance to explicit features : 0 cells.
Marked for refinement due to refinement shells             : 0 cells.
Determined cells to refine in = 0.28 s
Selected for internal refinement : 10 cells (out of 621602)
Edge intersection testing:
    Number of edges             : 1929582
    Number of edges to retest   : 677
    Number of intersected edges : 45625
Refined mesh in = 2.77 s
After refinement shell refinement iteration 12 : cells:621672  faces:1929582  points:687705
Cells per refinement level:
    0	423935
    1	46338
    2	144607
    3	6792

Shell refinement iteration 13
----------------------------

Marked for refinement due to distance to explicit features : 0 cells.
Marked for refinement due to refinement shells             : 0 cells.
Determined cells to refine in = 0.39 s
Selected for internal refinement : 7 cells (out of 621672)
Edge intersection testing:
    Number of edges             : 1929744
    Number of edges to retest   : 463
    Number of intersected edges : 45651
Refined mesh in = 2.81 s
After refinement shell refinement iteration 13 : cells:621721  faces:1929744  points:687769
Cells per refinement level:
    0	423934
    1	46340
    2	144655
    3	6792

Shell refinement iteration 14
----------------------------

Marked for refinement due to distance to explicit features : 0 cells.
Marked for refinement due to refinement shells             : 0 cells.
Determined cells to refine in = 0.32 s
Selected for internal refinement : 10 cells (out of 621721)
Edge intersection testing:
    Number of edges             : 1929969
    Number of edges to retest   : 677
    Number of intersected edges : 45651
Refined mesh in = 2.48 s
After refinement shell refinement iteration 14 : cells:621791  faces:1929969  points:687854
Cells per refinement level:
    0	423930
    1	46366
    2	144703
    3	6792

Shell refinement iteration 15
----------------------------

Marked for refinement due to distance to explicit features : 0 cells.
Marked for refinement due to refinement shells             : 0 cells.
Determined cells to refine in = 0.26 s
Selected for internal refinement : 7 cells (out of 621791)
Edge intersection testing:
    Number of edges             : 1930131
    Number of edges to retest   : 463
    Number of intersected edges : 45677
Refined mesh in = 2.52 s
After refinement shell refinement iteration 15 : cells:621840  faces:1930131  points:687918
Cells per refinement level:
    0	423929
    1	46368
    2	144751
    3	6792

Shell refinement iteration 16
----------------------------

Marked for refinement due to distance to explicit features : 0 cells.
Marked for refinement due to refinement shells             : 0 cells.
Determined cells to refine in = 0.31 s
Selected for internal refinement : 10 cells (out of 621840)
Edge intersection testing:
    Number of edges             : 1930356
    Number of edges to retest   : 677
    Number of intersected edges : 45677
Refined mesh in = 3.06 s
After refinement shell refinement iteration 16 : cells:621910  faces:1930356  points:688003
Cells per refinement level:
    0	423925
    1	46394
    2	144799
    3	6792

Shell refinement iteration 17
----------------------------

Marked for refinement due to distance to explicit features : 0 cells.
Marked for refinement due to refinement shells             : 0 cells.
Determined cells to refine in = 0.41 s
Selected for internal refinement : 7 cells (out of 621910)
Edge intersection testing:
    Number of edges             : 1930518
    Number of edges to retest   : 463
    Number of intersected edges : 45703
Refined mesh in = 2.48 s
After refinement shell refinement iteration 17 : cells:621959  faces:1930518  points:688067
Cells per refinement level:
    0	423924
    1	46396
    2	144847
    3	6792

Shell refinement iteration 18
----------------------------

Marked for refinement due to distance to explicit features : 0 cells.
Marked for refinement due to refinement shells             : 0 cells.
Determined cells to refine in = 0.29 s
Selected for internal refinement : 10 cells (out of 621959)
Edge intersection testing:
    Number of edges             : 1930743
    Number of edges to retest   : 677
    Number of intersected edges : 45703
Refined mesh in = 2.66 s
After refinement shell refinement iteration 18 : cells:622029  faces:1930743  points:688152
Cells per refinement level:
    0	423920
    1	46422
    2	144895
    3	6792

Shell refinement iteration 19
----------------------------

Marked for refinement due to distance to explicit features : 0 cells.
Marked for refinement due to refinement shells             : 0 cells.
Determined cells to refine in = 0.28 s
Selected for internal refinement : 7 cells (out of 622029)
Edge intersection testing:
    Number of edges             : 1930905
    Number of edges to retest   : 463
    Number of intersected edges : 45729
Refined mesh in = 2.57 s
After refinement shell refinement iteration 19 : cells:622078  faces:1930905  points:688216
Cells per refinement level:
    0	423919
    1	46424
    2	144943
    3	6792

Shell refinement iteration 20
----------------------------

Marked for refinement due to distance to explicit features : 0 cells.
Marked for refinement due to refinement shells             : 0 cells.
Determined cells to refine in = 0.37 s
Selected for internal refinement : 10 cells (out of 622078)
Edge intersection testing:
    Number of edges             : 1931130
    Number of edges to retest   : 677
    Number of intersected edges : 45729
Refined mesh in = 2.98 s
After refinement shell refinement iteration 20 : cells:622148  faces:1931130  points:688301
Cells per refinement level:
    0	423915
    1	46450
    2	144991
    3	6792

Shell refinement iteration 21
----------------------------

Marked for refinement due to distance to explicit features : 0 cells.
Marked for refinement due to refinement shells             : 0 cells.
Determined cells to refine in = 0.33 s
Selected for internal refinement : 7 cells (out of 622148)
Edge intersection testing:
    Number of edges             : 1931292
    Number of edges to retest   : 463
    Number of intersected edges : 45755
Refined mesh in = 2.52 s
After refinement shell refinement iteration 21 : cells:622197  faces:1931292  points:688365
Cells per refinement level:
    0	423914
    1	46452
    2	145039
    3	6792

Shell refinement iteration 22
----------------------------

Marked for refinement due to distance to explicit features : 0 cells.
Marked for refinement due to refinement shells             : 0 cells.
Determined cells to refine in = 0.26 s
Selected for internal refinement : 10 cells (out of 622197)
Edge intersection testing:
    Number of edges             : 1931517
    Number of edges to retest   : 677
    Number of intersected edges : 45755
Refined mesh in = 2.34 s
After refinement shell refinement iteration 22 : cells:622267  faces:1931517  points:688450
Cells per refinement level:
    0	423910
    1	46478
    2	145087
    3	6792

Shell refinement iteration 23
----------------------------

Marked for refinement due to distance to explicit features : 0 cells.
Marked for refinement due to refinement shells             : 0 cells.
Determined cells to refine in = 0.26 s
Selected for internal refinement : 7 cells (out of 622267)
Edge intersection testing:
    Number of edges             : 1931679
    Number of edges to retest   : 463
    Number of intersected edges : 45781
Refined mesh in = 2.36 s
After refinement shell refinement iteration 23 : cells:622316  faces:1931679  points:688514
Cells per refinement level:
    0	423909
    1	46480
    2	145135
    3	6792

Shell refinement iteration 24
----------------------------

Marked for refinement due to distance to explicit features : 0 cells.
Marked for refinement due to refinement shells             : 0 cells.
Determined cells to refine in = 0.28 s
Selected for internal refinement : 10 cells (out of 622316)
Edge intersection testing:
    Number of edges             : 1931904
    Number of edges to retest   : 677
    Number of intersected edges : 45781
Refined mesh in = 2.81 s
After refinement shell refinement iteration 24 : cells:622386  faces:1931904  points:688599
Cells per refinement level:
    0	423905
    1	46506
    2	145183
    3	6792

Shell refinement iteration 25
----------------------------

Marked for refinement due to distance to explicit features : 0 cells.
Marked for refinement due to refinement shells             : 0 cells.
Determined cells to refine in = 0.38 s
Selected for internal refinement : 7 cells (out of 622386)
Edge intersection testing:
    Number of edges             : 1932066
    Number of edges to retest   : 463
    Number of intersected edges : 45807
Refined mesh in = 3.09 s
After refinement shell refinement iteration 25 : cells:622435  faces:1932066  points:688663
Cells per refinement level:
    0	423904
    1	46508
    2	145231
    3	6792

Shell refinement iteration 26
----------------------------

Marked for refinement due to distance to explicit features : 0 cells.
Marked for refinement due to refinement shells             : 0 cells.
Determined cells to refine in = 0.35 s
Selected for internal refinement : 10 cells (out of 622435)
Edge intersection testing:
    Number of edges             : 1932291
    Number of edges to retest   : 677
    Number of intersected edges : 45807
Refined mesh in = 2.96 s
After refinement shell refinement iteration 26 : cells:622505  faces:1932291  points:688748
Cells per refinement level:
    0	423900
    1	46534
    2	145279
    3	6792

Shell refinement iteration 27
----------------------------

Marked for refinement due to distance to explicit features : 0 cells.
Marked for refinement due to refinement shells             : 0 cells.
Determined cells to refine in = 0.35 s
Selected for internal refinement : 7 cells (out of 622505)
Edge intersection testing:
    Number of edges             : 1932453
    Number of edges to retest   : 463
    Number of intersected edges : 45833
Refined mesh in = 2.96 s
After refinement shell refinement iteration 27 : cells:622554  faces:1932453  points:688812
Cells per refinement level:
    0	423899
    1	46536
    2	145327
    3	6792

Shell refinement iteration 28
----------------------------

Marked for refinement due to distance to explicit features : 0 cells.
Marked for refinement due to refinement shells             : 0 cells.
Determined cells to refine in = 0.34 s
Selected for internal refinement : 10 cells (out of 622554)
Edge intersection testing:
    Number of edges             : 1932678
    Number of edges to retest   : 677
    Number of intersected edges : 45833
Refined mesh in = 3 s
After refinement shell refinement iteration 28 : cells:622624  faces:1932678  points:688897
Cells per refinement level:
    0	423895
    1	46562
    2	145375
    3	6792

Shell refinement iteration 29
----------------------------

Marked for refinement due to distance to explicit features : 0 cells.
Marked for refinement due to refinement shells             : 0 cells.
Determined cells to refine in = 0.42 s
Selected for internal refinement : 7 cells (out of 622624)
Edge intersection testing:
    Number of edges             : 1932840
    Number of edges to retest   : 463
    Number of intersected edges : 45859
Refined mesh in = 3.28 s
After refinement shell refinement iteration 29 : cells:622673  faces:1932840  points:688961
Cells per refinement level:
    0	423894
    1	46564
    2	145423
    3	6792

Shell refinement iteration 30
----------------------------

Marked for refinement due to distance to explicit features : 0 cells.
Marked for refinement due to refinement shells             : 0 cells.
Determined cells to refine in = 0.38 s
Selected for internal refinement : 10 cells (out of 622673)
Edge intersection testing:
    Number of edges             : 1933065
    Number of edges to retest   : 677
    Number of intersected edges : 45859
Refined mesh in = 3.3 s
After refinement shell refinement iteration 30 : cells:622743  faces:1933065  points:689046
Cells per refinement level:
    0	423890
    1	46590
    2	145471
    3	6792

Shell refinement iteration 31
----------------------------

Marked for refinement due to distance to explicit features : 0 cells.
Marked for refinement due to refinement shells             : 0 cells.
Determined cells to refine in = 0.41 s
Selected for internal refinement : 7 cells (out of 622743)
Edge intersection testing:
    Number of edges             : 1933227
    Number of edges to retest   : 463
    Number of intersected edges : 45885
Refined mesh in = 3.31 s
After refinement shell refinement iteration 31 : cells:622792  faces:1933227  points:689110
Cells per refinement level:
    0	423889
    1	46592
    2	145519
    3	6792

Shell refinement iteration 32
----------------------------

Marked for refinement due to distance to explicit features : 0 cells.
Marked for refinement due to refinement shells             : 0 cells.
Determined cells to refine in = 0.41 s
Selected for internal refinement : 10 cells (out of 622792)
Edge intersection testing:
    Number of edges             : 1933452
    Number of edges to retest   : 677
    Number of intersected edges : 45885
Refined mesh in = 3.23 s
After refinement shell refinement iteration 32 : cells:622862  faces:1933452  points:689195
Cells per refinement level:
    0	423885
    1	46618
    2	145567
    3	6792

Shell refinement iteration 33
----------------------------

Marked for refinement due to distance to explicit features : 0 cells.
Marked for refinement due to refinement shells             : 0 cells.
Determined cells to refine in = 0.39 s
Selected for internal refinement : 7 cells (out of 622862)
Edge intersection testing:
    Number of edges             : 1933614
    Number of edges to retest   : 463
    Number of intersected edges : 45911
Refined mesh in = 3.33 s
After refinement shell refinement iteration 33 : cells:622911  faces:1933614  points:689259
Cells per refinement level:
    0	423884
    1	46620
    2	145615
    3	6792

Shell refinement iteration 34
----------------------------

Marked for refinement due to distance to explicit features : 0 cells.
Marked for refinement due to refinement shells             : 0 cells.
Determined cells to refine in = 0.35 s
Selected for internal refinement : 10 cells (out of 622911)
Edge intersection testing:
    Number of edges             : 1933839
    Number of edges to retest   : 677
    Number of intersected edges : 45911
Refined mesh in = 3.28 s
After refinement shell refinement iteration 34 : cells:622981  faces:1933839  points:689344
Cells per refinement level:
    0	423880
    1	46646
    2	145663
    3	6792

Shell refinement iteration 35
----------------------------

Marked for refinement due to distance to explicit features : 0 cells.
Marked for refinement due to refinement shells             : 0 cells.
Determined cells to refine in = 0.34 s
Selected for internal refinement : 7 cells (out of 622981)
Edge intersection testing:
    Number of edges             : 1934001
    Number of edges to retest   : 463
    Number of intersected edges : 45937
Refined mesh in = 3.19 s
After refinement shell refinement iteration 35 : cells:623030  faces:1934001  points:689408
Cells per refinement level:
    0	423879
    1	46648
    2	145711
    3	6792

Shell refinement iteration 36
----------------------------

Marked for refinement due to distance to explicit features : 0 cells.
Marked for refinement due to refinement shells             : 0 cells.
Determined cells to refine in = 0.38 s
Selected for internal refinement : 10 cells (out of 623030)
Edge intersection testing:
    Number of edges             : 1934226
    Number of edges to retest   : 677
    Number of intersected edges : 45937
Refined mesh in = 3.36 s
After refinement shell refinement iteration 36 : cells:623100  faces:1934226  points:689493
Cells per refinement level:
    0	423875
    1	46674
    2	145759
    3	6792

Shell refinement iteration 37
----------------------------

Marked for refinement due to distance to explicit features : 0 cells.
Marked for refinement due to refinement shells             : 0 cells.
Determined cells to refine in = 0.35 s
Selected for internal refinement : 7 cells (out of 623100)
Edge intersection testing:
    Number of edges             : 1934388
    Number of edges to retest   : 463
    Number of intersected edges : 45963
Refined mesh in = 3 s
After refinement shell refinement iteration 37 : cells:623149  faces:1934388  points:689557
Cells per refinement level:
    0	423874
    1	46676
    2	145807
    3	6792

Shell refinement iteration 38
----------------------------

Marked for refinement due to distance to explicit features : 0 cells.
Marked for refinement due to refinement shells             : 0 cells.
Determined cells to refine in = 0.36 s
Selected for internal refinement : 10 cells (out of 623149)
Edge intersection testing:
    Number of edges             : 1934613
    Number of edges to retest   : 677
    Number of intersected edges : 45963
Refined mesh in = 2.88 s
After refinement shell refinement iteration 38 : cells:623219  faces:1934613  points:689642
Cells per refinement level:
    0	423870
    1	46702
    2	145855
    3	6792

Shell refinement iteration 39
----------------------------

Marked for refinement due to distance to explicit features : 0 cells.
Marked for refinement due to refinement shells             : 0 cells.
Determined cells to refine in = 0.35 s
Selected for internal refinement : 7 cells (out of 623219)
Edge intersection testing:
    Number of edges             : 1934775
    Number of edges to retest   : 463
    Number of intersected edges : 45989
Refined mesh in = 2.82 s
After refinement shell refinement iteration 39 : cells:623268  faces:1934775  points:689706
Cells per refinement level:
    0	423869
    1	46704
    2	145903
    3	6792

Shell refinement iteration 40
----------------------------

Marked for refinement due to distance to explicit features : 0 cells.
Marked for refinement due to refinement shells             : 0 cells.
Determined cells to refine in = 0.4 s
Selected for internal refinement : 10 cells (out of 623268)
Edge intersection testing:
    Number of edges             : 1935000
    Number of edges to retest   : 677
    Number of intersected edges : 45989
Refined mesh in = 2.86 s
After refinement shell refinement iteration 40 : cells:623338  faces:1935000  points:689791
Cells per refinement level:
    0	423865
    1	46730
    2	145951
    3	6792

Shell refinement iteration 41
----------------------------

Marked for refinement due to distance to explicit features : 0 cells.
Marked for refinement due to refinement shells             : 0 cells.
Determined cells to refine in = 0.33 s
Selected for internal refinement : 7 cells (out of 623338)
Edge intersection testing:
    Number of edges             : 1935162
    Number of edges to retest   : 463
    Number of intersected edges : 46015
Refined mesh in = 2.77 s
After refinement shell refinement iteration 41 : cells:623387  faces:1935162  points:689855
Cells per refinement level:
    0	423864
    1	46732
    2	145999
    3	6792

Shell refinement iteration 42
----------------------------

Marked for refinement due to distance to explicit features : 0 cells.
Marked for refinement due to refinement shells             : 0 cells.
Determined cells to refine in = 0.34 s
Selected for internal refinement : 10 cells (out of 623387)
Edge intersection testing:
    Number of edges             : 1935387
    Number of edges to retest   : 677
    Number of intersected edges : 46015
Refined mesh in = 2.79 s
After refinement shell refinement iteration 42 : cells:623457  faces:1935387  points:689940
Cells per refinement level:
    0	423860
    1	46758
    2	146047
    3	6792

Shell refinement iteration 43
----------------------------

Marked for refinement due to distance to explicit features : 0 cells.
Marked for refinement due to refinement shells             : 0 cells.
Determined cells to refine in = 0.36 s
Selected for internal refinement : 7 cells (out of 623457)
Edge intersection testing:
    Number of edges             : 1935549
    Number of edges to retest   : 463
    Number of intersected edges : 46041
Refined mesh in = 2.99 s
After refinement shell refinement iteration 43 : cells:623506  faces:1935549  points:690004
Cells per refinement level:
    0	423859
    1	46760
    2	146095
    3	6792

Shell refinement iteration 44
----------------------------

Marked for refinement due to distance to explicit features : 0 cells.
Marked for refinement due to refinement shells             : 0 cells.
Determined cells to refine in = 0.38 s
Selected for internal refinement : 10 cells (out of 623506)
Edge intersection testing:
    Number of edges             : 1935774
    Number of edges to retest   : 677
    Number of intersected edges : 46041
Refined mesh in = 2.82 s
After refinement shell refinement iteration 44 : cells:623576  faces:1935774  points:690089
Cells per refinement level:
    0	423855
    1	46786
    2	146143
    3	6792

Shell refinement iteration 45
----------------------------

Marked for refinement due to distance to explicit features : 0 cells.
Marked for refinement due to refinement shells             : 0 cells.
Determined cells to refine in = 0.36 s
Selected for internal refinement : 7 cells (out of 623576)
Edge intersection testing:
    Number of edges             : 1935936
    Number of edges to retest   : 463
    Number of intersected edges : 46067
Refined mesh in = 2.79 s
After refinement shell refinement iteration 45 : cells:623625  faces:1935936  points:690153
Cells per refinement level:
    0	423854
    1	46788
    2	146191
    3	6792

Shell refinement iteration 46
----------------------------

Marked for refinement due to distance to explicit features : 0 cells.
Marked for refinement due to refinement shells             : 0 cells.
Determined cells to refine in = 0.35 s
Selected for internal refinement : 10 cells (out of 623625)
Edge intersection testing:
    Number of edges             : 1936161
    Number of edges to retest   : 677
    Number of intersected edges : 46067
Refined mesh in = 2.74 s
After refinement shell refinement iteration 46 : cells:623695  faces:1936161  points:690238
Cells per refinement level:
    0	423850
    1	46814
    2	146239
    3	6792

Shell refinement iteration 47
----------------------------

Marked for refinement due to distance to explicit features : 0 cells.
Marked for refinement due to refinement shells             : 0 cells.
Determined cells to refine in = 0.34 s
Selected for internal refinement : 7 cells (out of 623695)
Edge intersection testing:
    Number of edges             : 1936323
    Number of edges to retest   : 463
    Number of intersected edges : 46093
Refined mesh in = 2.89 s
After refinement shell refinement iteration 47 : cells:623744  faces:1936323  points:690302
Cells per refinement level:
    0	423849
    1	46816
    2	146287
    3	6792

Shell refinement iteration 48
----------------------------

Marked for refinement due to distance to explicit features : 0 cells.
Marked for refinement due to refinement shells             : 0 cells.
Determined cells to refine in = 0.44 s
Selected for internal refinement : 10 cells (out of 623744)
Edge intersection testing:
    Number of edges             : 1936548
    Number of edges to retest   : 677
    Number of intersected edges : 46093
Refined mesh in = 3.4 s
After refinement shell refinement iteration 48 : cells:623814  faces:1936548  points:690387
Cells per refinement level:
    0	423845
    1	46842
    2	146335
    3	6792

Shell refinement iteration 49
----------------------------

Marked for refinement due to distance to explicit features : 0 cells.
Marked for refinement due to refinement shells             : 0 cells.
Determined cells to refine in = 0.37 s
Selected for internal refinement : 7 cells (out of 623814)
Edge intersection testing:
    Number of edges             : 1936710
    Number of edges to retest   : 463
    Number of intersected edges : 46119
Refined mesh in = 3.08 s
After refinement shell refinement iteration 49 : cells:623863  faces:1936710  points:690451
Cells per refinement level:
    0	423844
    1	46844
    2	146383
    3	6792

Shell refinement iteration 50
----------------------------

Marked for refinement due to distance to explicit features : 0 cells.
Marked for refinement due to refinement shells             : 0 cells.
Determined cells to refine in = 0.36 s
Selected for internal refinement : 10 cells (out of 623863)
Edge intersection testing:
    Number of edges             : 1936935
    Number of edges to retest   : 677
    Number of intersected edges : 46119
Refined mesh in = 3.13 s
After refinement shell refinement iteration 50 : cells:623933  faces:1936935  points:690536
Cells per refinement level:
    0	423840
    1	46870
    2	146431
    3	6792

Shell refinement iteration 51
----------------------------

Marked for refinement due to distance to explicit features : 0 cells.
Marked for refinement due to refinement shells             : 0 cells.
Determined cells to refine in = 0.41 s
Selected for internal refinement : 7 cells (out of 623933)
Edge intersection testing:
    Number of edges             : 1937097
    Number of edges to retest   : 463
    Number of intersected edges : 46145
Refined mesh in = 3.13 s
After refinement shell refinement iteration 51 : cells:623982  faces:1937097  points:690600
Cells per refinement level:
    0	423839
    1	46872
    2	146479
    3	6792

Shell refinement iteration 52
----------------------------

Marked for refinement due to distance to explicit features : 0 cells.
Marked for refinement due to refinement shells             : 0 cells.
Determined cells to refine in = 0.39 s
Selected for internal refinement : 10 cells (out of 623982)
Edge intersection testing:
    Number of edges             : 1937322
    Number of edges to retest   : 677
    Number of intersected edges : 46145
Refined mesh in = 3.13 s
After refinement shell refinement iteration 52 : cells:624052  faces:1937322  points:690685
Cells per refinement level:
    0	423835
    1	46898
    2	146527
    3	6792

Shell refinement iteration 53
----------------------------

Marked for refinement due to distance to explicit features : 0 cells.
Marked for refinement due to refinement shells             : 0 cells.
Determined cells to refine in = 0.3 s
Selected for internal refinement : 7 cells (out of 624052)
Edge intersection testing:
    Number of edges             : 1937484
    Number of edges to retest   : 463
    Number of intersected edges : 46171
Refined mesh in = 3.39 s
After refinement shell refinement iteration 53 : cells:624101  faces:1937484  points:690749
Cells per refinement level:
    0	423834
    1	46900
    2	146575
    3	6792

Shell refinement iteration 54
----------------------------

Marked for refinement due to distance to explicit features : 0 cells.
Marked for refinement due to refinement shells             : 0 cells.
Determined cells to refine in = 0.37 s
Selected for internal refinement : 10 cells (out of 624101)
Edge intersection testing:
    Number of edges             : 1937709
    Number of edges to retest   : 677
    Number of intersected edges : 46171
Refined mesh in = 3.05 s
After refinement shell refinement iteration 54 : cells:624171  faces:1937709  points:690834
Cells per refinement level:
    0	423830
    1	46926
    2	146623
    3	6792

Shell refinement iteration 55
----------------------------

Marked for refinement due to distance to explicit features : 0 cells.
Marked for refinement due to refinement shells             : 0 cells.
Determined cells to refine in = 0.42 s
Selected for internal refinement : 7 cells (out of 624171)
Edge intersection testing:
    Number of edges             : 1937871
    Number of edges to retest   : 463
    Number of intersected edges : 46197
Refined mesh in = 3.35 s
After refinement shell refinement iteration 55 : cells:624220  faces:1937871  points:690898
Cells per refinement level:
    0	423829
    1	46928
    2	146671
    3	6792

Shell refinement iteration 56
----------------------------

Marked for refinement due to distance to explicit features : 0 cells.
Marked for refinement due to refinement shells             : 0 cells.
Determined cells to refine in = 0.35 s
Selected for internal refinement : 10 cells (out of 624220)
Edge intersection testing:
    Number of edges             : 1938096
    Number of edges to retest   : 677
    Number of intersected edges : 46197
Refined mesh in = 3.24 s
After refinement shell refinement iteration 56 : cells:624290  faces:1938096  points:690983
Cells per refinement level:
    0	423825
    1	46954
    2	146719
    3	6792

Shell refinement iteration 57
----------------------------

Marked for refinement due to distance to explicit features : 0 cells.
Marked for refinement due to refinement shells             : 0 cells.
Determined cells to refine in = 0.4 s
Selected for internal refinement : 7 cells (out of 624290)
Edge intersection testing:
    Number of edges             : 1938258
    Number of edges to retest   : 463
    Number of intersected edges : 46223
Refined mesh in = 3.06 s
After refinement shell refinement iteration 57 : cells:624339  faces:1938258  points:691047
Cells per refinement level:
    0	423824
    1	46956
    2	146767
    3	6792

Shell refinement iteration 58
----------------------------

Marked for refinement due to distance to explicit features : 0 cells.
Marked for refinement due to refinement shells             : 0 cells.
Determined cells to refine in = 0.38 s
Selected for internal refinement : 10 cells (out of 624339)
Edge intersection testing:
    Number of edges             : 1938483
    Number of edges to retest   : 677
    Number of intersected edges : 46223
Refined mesh in = 3.14 s
After refinement shell refinement iteration 58 : cells:624409  faces:1938483  points:691132
Cells per refinement level:
    0	423820
    1	46982
    2	146815
    3	6792

Shell refinement iteration 59
----------------------------

Marked for refinement due to distance to explicit features : 0 cells.
Marked for refinement due to refinement shells             : 0 cells.
Determined cells to refine in = 0.4 s
Selected for internal refinement : 7 cells (out of 624409)
Edge intersection testing:
    Number of edges             : 1938645
    Number of edges to retest   : 463
    Number of intersected edges : 46249
Refined mesh in = 3.13 s
After refinement shell refinement iteration 59 : cells:624458  faces:1938645  points:691196
Cells per refinement level:
    0	423819
    1	46984
    2	146863
    3	6792

Shell refinement iteration 60
----------------------------

Marked for refinement due to distance to explicit features : 0 cells.
Marked for refinement due to refinement shells             : 0 cells.
Determined cells to refine in = 0.37 s
Selected for internal refinement : 10 cells (out of 624458)
Edge intersection testing:
    Number of edges             : 1938870
    Number of edges to retest   : 677
    Number of intersected edges : 46249
Refined mesh in = 3.17 s
After refinement shell refinement iteration 60 : cells:624528  faces:1938870  points:691281
Cells per refinement level:
    0	423815
    1	47010
    2	146911
    3	6792

Shell refinement iteration 61
----------------------------

Marked for refinement due to distance to explicit features : 0 cells.
Marked for refinement due to refinement shells             : 0 cells.
Determined cells to refine in = 0.39 s
Selected for internal refinement : 7 cells (out of 624528)
Edge intersection testing:
    Number of edges             : 1939032
    Number of edges to retest   : 463
    Number of intersected edges : 46275
Refined mesh in = 3.14 s
After refinement shell refinement iteration 61 : cells:624577  faces:1939032  points:691345
Cells per refinement level:
    0	423814
    1	47012
    2	146959
    3	6792

Shell refinement iteration 62
----------------------------

Marked for refinement due to distance to explicit features : 0 cells.
Marked for refinement due to refinement shells             : 0 cells.
Determined cells to refine in = 0.42 s
Selected for internal refinement : 10 cells (out of 624577)
Edge intersection testing:
    Number of edges             : 1939257
    Number of edges to retest   : 677
    Number of intersected edges : 46275
Refined mesh in = 3.19 s
After refinement shell refinement iteration 62 : cells:624647  faces:1939257  points:691430
Cells per refinement level:
    0	423810
    1	47038
    2	147007
    3	6792

Shell refinement iteration 63
----------------------------

Marked for refinement due to distance to explicit features : 0 cells.
Marked for refinement due to refinement shells             : 0 cells.
Determined cells to refine in = 0.38 s
Selected for internal refinement : 7 cells (out of 624647)
Edge intersection testing:
    Number of edges             : 1939419
    Number of edges to retest   : 463
    Number of intersected edges : 46301
Refined mesh in = 3.17 s
After refinement shell refinement iteration 63 : cells:624696  faces:1939419  points:691494
Cells per refinement level:
    0	423809
    1	47040
    2	147055
    3	6792

Shell refinement iteration 64
----------------------------

Marked for refinement due to distance to explicit features : 0 cells.
Marked for refinement due to refinement shells             : 0 cells.
Determined cells to refine in = 0.36 s
Selected for internal refinement : 10 cells (out of 624696)
Edge intersection testing:
    Number of edges             : 1939644
    Number of edges to retest   : 677
    Number of intersected edges : 46301
Refined mesh in = 3.32 s
After refinement shell refinement iteration 64 : cells:624766  faces:1939644  points:691579
Cells per refinement level:
    0	423805
    1	47066
    2	147103
    3	6792

Shell refinement iteration 65
----------------------------

Marked for refinement due to distance to explicit features : 0 cells.
Marked for refinement due to refinement shells             : 0 cells.
Determined cells to refine in = 0.41 s
Selected for internal refinement : 7 cells (out of 624766)
Edge intersection testing:
    Number of edges             : 1939806
    Number of edges to retest   : 463
    Number of intersected edges : 46327
Refined mesh in = 3.33 s
After refinement shell refinement iteration 65 : cells:624815  faces:1939806  points:691643
Cells per refinement level:
    0	423804
    1	47068
    2	147151
    3	6792

Shell refinement iteration 66
----------------------------

Marked for refinement due to distance to explicit features : 0 cells.
Marked for refinement due to refinement shells             : 0 cells.
Determined cells to refine in = 0.36 s
Selected for internal refinement : 10 cells (out of 624815)
Edge intersection testing:
    Number of edges             : 1940031
    Number of edges to retest   : 677
    Number of intersected edges : 46327
Refined mesh in = 3.12 s
After refinement shell refinement iteration 66 : cells:624885  faces:1940031  points:691728
Cells per refinement level:
    0	423800
    1	47094
    2	147199
    3	6792

Shell refinement iteration 67
----------------------------

Marked for refinement due to distance to explicit features : 0 cells.
Marked for refinement due to refinement shells             : 0 cells.
Determined cells to refine in = 0.41 s
Selected for internal refinement : 7 cells (out of 624885)
Edge intersection testing:
    Number of edges             : 1940193
    Number of edges to retest   : 463
    Number of intersected edges : 46353
Refined mesh in = 3.17 s
After refinement shell refinement iteration 67 : cells:624934  faces:1940193  points:691792
Cells per refinement level:
    0	423799
    1	47096
    2	147247
    3	6792

Shell refinement iteration 68
----------------------------

Marked for refinement due to distance to explicit features : 0 cells.
Marked for refinement due to refinement shells             : 0 cells.
Determined cells to refine in = 0.39 s
Selected for internal refinement : 10 cells (out of 624934)
Edge intersection testing:
    Number of edges             : 1940418
    Number of edges to retest   : 677
    Number of intersected edges : 46353
Refined mesh in = 3.11 s
After refinement shell refinement iteration 68 : cells:625004  faces:1940418  points:691877
Cells per refinement level:
    0	423795
    1	47122
    2	147295
    3	6792

Shell refinement iteration 69
----------------------------

Marked for refinement due to distance to explicit features : 0 cells.
Marked for refinement due to refinement shells             : 0 cells.
Determined cells to refine in = 0.36 s
Selected for internal refinement : 7 cells (out of 625004)
Edge intersection testing:
    Number of edges             : 1940580
    Number of edges to retest   : 463
    Number of intersected edges : 46379
Refined mesh in = 3.1 s
After refinement shell refinement iteration 69 : cells:625053  faces:1940580  points:691941
Cells per refinement level:
    0	423794
    1	47124
    2	147343
    3	6792

Shell refinement iteration 70
----------------------------

Marked for refinement due to distance to explicit features : 0 cells.
Marked for refinement due to refinement shells             : 0 cells.
Determined cells to refine in = 0.34 s
Selected for internal refinement : 10 cells (out of 625053)
Edge intersection testing:
    Number of edges             : 1940805
    Number of edges to retest   : 677
    Number of intersected edges : 46379
Refined mesh in = 3.19 s
After refinement shell refinement iteration 70 : cells:625123  faces:1940805  points:692026
Cells per refinement level:
    0	423790
    1	47150
    2	147391
    3	6792

Shell refinement iteration 71
----------------------------

Marked for refinement due to distance to explicit features : 0 cells.
Marked for refinement due to refinement shells             : 0 cells.
Determined cells to refine in = 0.4 s
Selected for internal refinement : 7 cells (out of 625123)
Edge intersection testing:
    Number of edges             : 1940967
    Number of edges to retest   : 463
    Number of intersected edges : 46405
Refined mesh in = 3.31 s
After refinement shell refinement iteration 71 : cells:625172  faces:1940967  points:692090
Cells per refinement level:
    0	423789
    1	47152
    2	147439
    3	6792

Shell refinement iteration 72
----------------------------

Marked for refinement due to distance to explicit features : 0 cells.
Marked for refinement due to refinement shells             : 0 cells.
Determined cells to refine in = 0.48 s
Selected for internal refinement : 10 cells (out of 625172)
Edge intersection testing:
    Number of edges             : 1941192
    Number of edges to retest   : 677
    Number of intersected edges : 46405
Refined mesh in = 3.46 s
After refinement shell refinement iteration 72 : cells:625242  faces:1941192  points:692175
Cells per refinement level:
    0	423785
    1	47178
    2	147487
    3	6792

Shell refinement iteration 73
----------------------------

Marked for refinement due to distance to explicit features : 0 cells.
Marked for refinement due to refinement shells             : 0 cells.
Determined cells to refine in = 0.37 s
Selected for internal refinement : 7 cells (out of 625242)
Edge intersection testing:
    Number of edges             : 1941354
    Number of edges to retest   : 463
    Number of intersected edges : 46431
Refined mesh in = 3.12 s
After refinement shell refinement iteration 73 : cells:625291  faces:1941354  points:692239
Cells per refinement level:
    0	423784
    1	47180
    2	147535
    3	6792

Shell refinement iteration 74
----------------------------

Marked for refinement due to distance to explicit features : 0 cells.
Marked for refinement due to refinement shells             : 0 cells.
Determined cells to refine in = 0.4 s
Selected for internal refinement : 10 cells (out of 625291)
Edge intersection testing:
    Number of edges             : 1941579
    Number of edges to retest   : 677
    Number of intersected edges : 46431
Refined mesh in = 3.27 s
After refinement shell refinement iteration 74 : cells:625361  faces:1941579  points:692324
Cells per refinement level:
    0	423780
    1	47206
    2	147583
    3	6792

Shell refinement iteration 75
----------------------------

Marked for refinement due to distance to explicit features : 0 cells.
Marked for refinement due to refinement shells             : 0 cells.
Determined cells to refine in = 0.4 s
Selected for internal refinement : 7 cells (out of 625361)
Edge intersection testing:
    Number of edges             : 1941741
    Number of edges to retest   : 463
    Number of intersected edges : 46457
Refined mesh in = 3.09 s
After refinement shell refinement iteration 75 : cells:625410  faces:1941741  points:692388
Cells per refinement level:
    0	423779
    1	47208
    2	147631
    3	6792

Shell refinement iteration 76
----------------------------

Marked for refinement due to distance to explicit features : 0 cells.
Marked for refinement due to refinement shells             : 0 cells.
Determined cells to refine in = 0.39 s
Selected for internal refinement : 10 cells (out of 625410)
Edge intersection testing:
    Number of edges             : 1941966
    Number of edges to retest   : 677
    Number of intersected edges : 46457
Refined mesh in = 3.23 s
After refinement shell refinement iteration 76 : cells:625480  faces:1941966  points:692473
Cells per refinement level:
    0	423775
    1	47234
    2	147679
    3	6792

Shell refinement iteration 77
----------------------------

Marked for refinement due to distance to explicit features : 0 cells.
Marked for refinement due to refinement shells             : 0 cells.
Determined cells to refine in = 0.41 s
Selected for internal refinement : 7 cells (out of 625480)
Edge intersection testing:
    Number of edges             : 1942128
    Number of edges to retest   : 463
    Number of intersected edges : 46483
Refined mesh in = 3.41 s
After refinement shell refinement iteration 77 : cells:625529  faces:1942128  points:692537
Cells per refinement level:
    0	423774
    1	47236
    2	147727
    3	6792

Shell refinement iteration 78
----------------------------

Marked for refinement due to distance to explicit features : 0 cells.
Marked for refinement due to refinement shells             : 0 cells.
Determined cells to refine in = 0.4 s
Selected for internal refinement : 10 cells (out of 625529)
Edge intersection testing:
    Number of edges             : 1942353
    Number of edges to retest   : 677
    Number of intersected edges : 46483
Refined mesh in = 3.38 s
After refinement shell refinement iteration 78 : cells:625599  faces:1942353  points:692622
Cells per refinement level:
    0	423770
    1	47262
    2	147775
    3	6792

Shell refinement iteration 79
----------------------------

Marked for refinement due to distance to explicit features : 0 cells.
Marked for refinement due to refinement shells             : 0 cells.
Determined cells to refine in = 0.42 s
Selected for internal refinement : 7 cells (out of 625599)
Edge intersection testing:
    Number of edges             : 1942515
    Number of edges to retest   : 463
    Number of intersected edges : 46509
Refined mesh in = 2.44 s
After refinement shell refinement iteration 79 : cells:625648  faces:1942515  points:692686
Cells per refinement level:
    0	423769
    1	47264
    2	147823
    3	6792

Shell refinement iteration 80
----------------------------

Marked for refinement due to distance to explicit features : 0 cells.
Marked for refinement due to refinement shells             : 0 cells.
Determined cells to refine in = 0.27 s
Selected for internal refinement : 10 cells (out of 625648)
Edge intersection testing:
    Number of edges             : 1942740
    Number of edges to retest   : 677
    Number of intersected edges : 46509
Refined mesh in = 2.35 s
After refinement shell refinement iteration 80 : cells:625718  faces:1942740  points:692771
Cells per refinement level:
    0	423765
    1	47290
    2	147871
    3	6792

Shell refinement iteration 81
----------------------------

Marked for refinement due to distance to explicit features : 0 cells.
Marked for refinement due to refinement shells             : 0 cells.
Determined cells to refine in = 0.27 s
Selected for internal refinement : 7 cells (out of 625718)
Edge intersection testing:
    Number of edges             : 1942902
    Number of edges to retest   : 463
    Number of intersected edges : 46535
Refined mesh in = 2.46 s
After refinement shell refinement iteration 81 : cells:625767  faces:1942902  points:692835
Cells per refinement level:
    0	423764
    1	47292
    2	147919
    3	6792

Shell refinement iteration 82
----------------------------

Marked for refinement due to distance to explicit features : 0 cells.
Marked for refinement due to refinement shells             : 0 cells.
Determined cells to refine in = 0.33 s
Selected for internal refinement : 10 cells (out of 625767)
Edge intersection testing:
    Number of edges             : 1943127
    Number of edges to retest   : 677
    Number of intersected edges : 46535
Refined mesh in = 2.73 s
After refinement shell refinement iteration 82 : cells:625837  faces:1943127  points:692920
Cells per refinement level:
    0	423760
    1	47318
    2	147967
    3	6792

Shell refinement iteration 83
----------------------------

Marked for refinement due to distance to explicit features : 0 cells.
Marked for refinement due to refinement shells             : 0 cells.
Determined cells to refine in = 0.35 s
Selected for internal refinement : 7 cells (out of 625837)
Edge intersection testing:
    Number of edges             : 1943289
    Number of edges to retest   : 463
    Number of intersected edges : 46561
Refined mesh in = 2.48 s
After refinement shell refinement iteration 83 : cells:625886  faces:1943289  points:692984
Cells per refinement level:
    0	423759
    1	47320
    2	148015
    3	6792

Shell refinement iteration 84
----------------------------

Marked for refinement due to distance to explicit features : 0 cells.
Marked for refinement due to refinement shells             : 0 cells.
Determined cells to refine in = 0.28 s
Selected for internal refinement : 10 cells (out of 625886)
Edge intersection testing:
    Number of edges             : 1943514
    Number of edges to retest   : 677
    Number of intersected edges : 46561
Refined mesh in = 2.38 s
After refinement shell refinement iteration 84 : cells:625956  faces:1943514  points:693069
Cells per refinement level:
    0	423755
    1	47346
    2	148063
    3	6792

Shell refinement iteration 85
----------------------------

Marked for refinement due to distance to explicit features : 0 cells.
Marked for refinement due to refinement shells             : 0 cells.
Determined cells to refine in = 0.27 s
Selected for internal refinement : 7 cells (out of 625956)
Edge intersection testing:
    Number of edges             : 1943676
    Number of edges to retest   : 463
    Number of intersected edges : 46587
Refined mesh in = 2.61 s
After refinement shell refinement iteration 85 : cells:626005  faces:1943676  points:693133
Cells per refinement level:
    0	423754
    1	47348
    2	148111
    3	6792

Shell refinement iteration 86
----------------------------

Marked for refinement due to distance to explicit features : 0 cells.
Marked for refinement due to refinement shells             : 0 cells.
Determined cells to refine in = 0.32 s
Selected for internal refinement : 10 cells (out of 626005)
Edge intersection testing:
    Number of edges             : 1943901
    Number of edges to retest   : 677
    Number of intersected edges : 46587
Refined mesh in = 2.44 s
After refinement shell refinement iteration 86 : cells:626075  faces:1943901  points:693218
Cells per refinement level:
    0	423750
    1	47374
    2	148159
    3	6792

Shell refinement iteration 87
----------------------------

Marked for refinement due to distance to explicit features : 0 cells.
Marked for refinement due to refinement shells             : 0 cells.
Determined cells to refine in = 0.3 s
Selected for internal refinement : 7 cells (out of 626075)
Edge intersection testing:
    Number of edges             : 1944063
    Number of edges to retest   : 463
    Number of intersected edges : 46613
Refined mesh in = 2.51 s
After refinement shell refinement iteration 87 : cells:626124  faces:1944063  points:693282
Cells per refinement level:
    0	423749
    1	47376
    2	148207
    3	6792

Shell refinement iteration 88
----------------------------

Marked for refinement due to distance to explicit features : 0 cells.
Marked for refinement due to refinement shells             : 0 cells.
Determined cells to refine in = 0.3 s
Selected for internal refinement : 10 cells (out of 626124)
Edge intersection testing:
    Number of edges             : 1944288
    Number of edges to retest   : 677
    Number of intersected edges : 46613
Refined mesh in = 2.57 s
After refinement shell refinement iteration 88 : cells:626194  faces:1944288  points:693367
Cells per refinement level:
    0	423745
    1	47402
    2	148255
    3	6792

Shell refinement iteration 89
----------------------------

Marked for refinement due to distance to explicit features : 0 cells.
Marked for refinement due to refinement shells             : 0 cells.
Determined cells to refine in = 0.29 s
Selected for internal refinement : 7 cells (out of 626194)
Edge intersection testing:
    Number of edges             : 1944450
    Number of edges to retest   : 463
    Number of intersected edges : 46639
Refined mesh in = 2.71 s
After refinement shell refinement iteration 89 : cells:626243  faces:1944450  points:693431
Cells per refinement level:
    0	423744
    1	47404
    2	148303
    3	6792

Shell refinement iteration 90
----------------------------

Marked for refinement due to distance to explicit features : 0 cells.
Marked for refinement due to refinement shells             : 0 cells.
Determined cells to refine in = 0.32 s
Selected for internal refinement : 10 cells (out of 626243)
Edge intersection testing:
    Number of edges             : 1944675
    Number of edges to retest   : 677
    Number of intersected edges : 46639
Refined mesh in = 2.41 s
After refinement shell refinement iteration 90 : cells:626313  faces:1944675  points:693516
Cells per refinement level:
    0	423740
    1	47430
    2	148351
    3	6792

Shell refinement iteration 91
----------------------------

Marked for refinement due to distance to explicit features : 0 cells.
Marked for refinement due to refinement shells             : 0 cells.
Determined cells to refine in = 0.33 s
Selected for internal refinement : 7 cells (out of 626313)
Edge intersection testing:
    Number of edges             : 1944837
    Number of edges to retest   : 463
    Number of intersected edges : 46665
Refined mesh in = 2.46 s
After refinement shell refinement iteration 91 : cells:626362  faces:1944837  points:693580
Cells per refinement level:
    0	423739
    1	47432
    2	148399
    3	6792

Shell refinement iteration 92
----------------------------

Marked for refinement due to distance to explicit features : 0 cells.
Marked for refinement due to refinement shells             : 0 cells.
Determined cells to refine in = 0.28 s
Selected for internal refinement : 10 cells (out of 626362)
Edge intersection testing:
    Number of edges             : 1945062
    Number of edges to retest   : 677
    Number of intersected edges : 46665
Refined mesh in = 2.33 s
After refinement shell refinement iteration 92 : cells:626432  faces:1945062  points:693665
Cells per refinement level:
    0	423735
    1	47458
    2	148447
    3	6792

Shell refinement iteration 93
----------------------------

Marked for refinement due to distance to explicit features : 0 cells.
Marked for refinement due to refinement shells             : 0 cells.
Determined cells to refine in = 0.27 s
Selected for internal refinement : 7 cells (out of 626432)
Edge intersection testing:
    Number of edges             : 1945224
    Number of edges to retest   : 463
    Number of intersected edges : 46691
Refined mesh in = 2.45 s
After refinement shell refinement iteration 93 : cells:626481  faces:1945224  points:693729
Cells per refinement level:
    0	423734
    1	47460
    2	148495
    3	6792

Shell refinement iteration 94
----------------------------

Marked for refinement due to distance to explicit features : 0 cells.
Marked for refinement due to refinement shells             : 0 cells.
Determined cells to refine in = 0.28 s
Selected for internal refinement : 10 cells (out of 626481)
Edge intersection testing:
    Number of edges             : 1945449
    Number of edges to retest   : 677
    Number of intersected edges : 46691
Refined mesh in = 2.73 s
After refinement shell refinement iteration 94 : cells:626551  faces:1945449  points:693814
Cells per refinement level:
    0	423730
    1	47486
    2	148543
    3	6792

Shell refinement iteration 95
----------------------------

Marked for refinement due to distance to explicit features : 0 cells.
Marked for refinement due to refinement shells             : 0 cells.
Determined cells to refine in = 0.37 s
Selected for internal refinement : 7 cells (out of 626551)
Edge intersection testing:
    Number of edges             : 1945611
    Number of edges to retest   : 463
    Number of intersected edges : 46717
Refined mesh in = 2.76 s
After refinement shell refinement iteration 95 : cells:626600  faces:1945611  points:693878
Cells per refinement level:
    0	423729
    1	47488
    2	148591
    3	6792

Shell refinement iteration 96
----------------------------

Marked for refinement due to distance to explicit features : 0 cells.
Marked for refinement due to refinement shells             : 0 cells.
Determined cells to refine in = 0.32 s
Selected for internal refinement : 10 cells (out of 626600)
Edge intersection testing:
    Number of edges             : 1945836
    Number of edges to retest   : 677
    Number of intersected edges : 46717
Refined mesh in = 2.64 s
After refinement shell refinement iteration 96 : cells:626670  faces:1945836  points:693963
Cells per refinement level:
    0	423725
    1	47514
    2	148639
    3	6792

Shell refinement iteration 97
----------------------------

Marked for refinement due to distance to explicit features : 0 cells.
Marked for refinement due to refinement shells             : 0 cells.
Determined cells to refine in = 0.3 s
Selected for internal refinement : 7 cells (out of 626670)
Edge intersection testing:
    Number of edges             : 1945998
    Number of edges to retest   : 463
    Number of intersected edges : 46743
Refined mesh in = 3.08 s
After refinement shell refinement iteration 97 : cells:626719  faces:1945998  points:694027
Cells per refinement level:
    0	423724
    1	47516
    2	148687
    3	6792

Shell refinement iteration 98
----------------------------

Marked for refinement due to distance to explicit features : 0 cells.
Marked for refinement due to refinement shells             : 0 cells.
Determined cells to refine in = 0.42 s
Selected for internal refinement : 10 cells (out of 626719)
Edge intersection testing:
    Number of edges             : 1946223
    Number of edges to retest   : 677
    Number of intersected edges : 46743
Refined mesh in = 3.14 s
After refinement shell refinement iteration 98 : cells:626789  faces:1946223  points:694112
Cells per refinement level:
    0	423720
    1	47542
    2	148735
    3	6792

Shell refinement iteration 99
----------------------------

Marked for refinement due to distance to explicit features : 0 cells.
Marked for refinement due to refinement shells             : 0 cells.
Determined cells to refine in = 0.45 s
Selected for internal refinement : 7 cells (out of 626789)
Edge intersection testing:
    Number of edges             : 1946385
    Number of edges to retest   : 463
    Number of intersected edges : 46769
Refined mesh in = 2.95 s
After refinement shell refinement iteration 99 : cells:626838  faces:1946385  points:694176
Cells per refinement level:
    0	423719
    1	47544
    2	148783
    3	6792

Dangling coarse cells refinement iteration 0
--------------------------------------------

Determined cells to refine in = 0.05 s
Selected for refinement : 422 cells (out of 626838)
Edge intersection testing:
    Number of edges             : 1952715
    Number of edges to retest   : 48250
    Number of intersected edges : 46769
Refined mesh in = 3.08 s
After refinement coarse cell refinement iteration 0 : cells:629792  faces:1952715  points:695020
Cells per refinement level:
    0	423719
    1	47122
    2	152159
    3	6792

Dangling coarse cells refinement iteration 1
--------------------------------------------

Determined cells to refine in = 0.04 s
Selected for refinement : 0 cells (out of 629792)
Stopping refining since too few cells selected.


Dangling coarse cells refinement iteration 0
--------------------------------------------

Determined cells to refine in = 0.03 s
Selected for refinement : 0 cells (out of 629792)
Stopping refining since too few cells selected.


Splitting mesh at surface intersections
---------------------------------------

Introducing baffles for 46769 faces that are intersected by the surface.

Edge intersection testing:
    Number of edges             : 1999484
    Number of edges to retest   : 314308
    Number of intersected edges : 91312
Created baffles in = 2.66 s


After introducing baffles : cells:629792  faces:1999484  points:695020
Cells per refinement level:
    0	423719
    1	47122
    2	152159
    3	6792

Introducing baffles to block off problem cells
----------------------------------------------

markFacesOnProblemCells : marked 1439 additional internal faces to be converted into baffles.
Analyzed problem cells in = 1.86 s


Introducing baffles to delete problem cells.

Edge intersection testing:
    Number of edges             : 2000923
    Number of edges to retest   : 8187
    Number of intersected edges : 91312
Created baffles in = 2.19 s


After introducing baffles : cells:629792  faces:2000923  points:695020
Cells per refinement level:
    0	423719
    1	47122
    2	152159
    3	6792

Remove unreachable sections of mesh
-----------------------------------

Keeping all cells in region 74 containing point (0.101 0.0251 0.00021)
Selected for keeping : 114368 cells.
Edge intersection testing:
    Number of edges             : 378458
    Number of edges to retest   : 0
    Number of intersected edges : 43698
Split mesh in = 9.24 s


After subsetting : cells:114368  faces:378458  points:150915
Cells per refinement level:
    0	32343
    1	12591
    2	64932
    3	4502

Handling cells with snap problems
---------------------------------

Introducing baffles for 43698 faces that are intersected by the surface.

Edge intersection testing:
    Number of edges             : 378458
    Number of edges to retest   : 146194
    Number of intersected edges : 43698
Created baffles in = 0.63 s


After introducing baffles : cells:114368  faces:378458  points:150915
Cells per refinement level:
    0	32343
    1	12591
    2	64932
    3	4502

Introducing baffles to block off problem cells
----------------------------------------------

markFacesOnProblemCells : marked 0 additional internal faces to be converted into baffles.
Analyzed problem cells in = 0.34 s


Introducing baffles to delete problem cells.

Edge intersection testing:
    Number of edges             : 378458
    Number of edges to retest   : 0
    Number of intersected edges : 43698
Created baffles in = 0.31 s


After introducing baffles : cells:114368  faces:378458  points:150915
Cells per refinement level:
    0	32343
    1	12591
    2	64932
    3	4502

Remove unreachable sections of mesh
-----------------------------------

Keeping all cells in region 0 containing point (0.101 0.0251 0.00021)
Selected for keeping : 114368 cells.
Edge intersection testing:
    Number of edges             : 378458
    Number of edges to retest   : 0
    Number of intersected edges : 43698
Split mesh in = 1.83 s


After subsetting : cells:114368  faces:378458  points:150915
Cells per refinement level:
    0	32343
    1	12591
    2	64932
    3	4502

Merge free-standing baffles
---------------------------

freeStandingBaffles : detected 50 free-standing baffles out of 50

freeStandingBaffles : detected 0 planar (within 60 degrees) free-standing baffles out of 50

Detected free-standing baffles : 0
Merged free-standing baffles in = 0.14 s


dupNonManifoldPoints : Found : 51 non-manifold points (out of 150915)
Edge intersection testing:
    Number of edges             : 378458
    Number of edges to retest   : 0
    Number of intersected edges : 43698
Detected unsplittable baffles : 0

Merge refined boundary faces
----------------------------

Merging 913 sets of faces.

Edge intersection testing:
    Number of edges             : 376913
    Number of edges to retest   : 7050
    Number of intersected edges : 42157

Undo iteration 0
----------------
Checking faces in error :
    non-orthogonality > 65  degrees                        : 0
    faces with face pyramid volume < 1e-13                 : 0
    faces with face-decomposition tet quality < 1e-15      : 0
    faces with concavity > 80  degrees                     : 0
    faces with skewness > 4   (internal) or 20  (boundary) : 0
    faces with interpolation weights (0..1)  < 0.05        : 0
    faces with volume ratio of neighbour cells < 0.01      : 0
    faces with face twist < 0.02                           : 0
    faces on cells with determinant < 0.001                : 0

Merging all points on surface that
- are used by only two boundary faces and
- make an angle with a cosine of more than 0.707107.

Removing 1282 straight edge points ...

Edge intersection testing:
    Number of edges             : 376913
    Number of edges to retest   : 8139
    Number of intersected edges : 42157

Undo iteration 0
----------------
Checking faces in error :
    non-orthogonality > 65  degrees                        : 0
    faces with face pyramid volume < 1e-13                 : 0
    faces with face-decomposition tet quality < 1e-15      : 0
    faces with concavity > 80  degrees                     : 0
    faces with skewness > 4   (internal) or 20  (boundary) : 0
    faces with interpolation weights (0..1)  < 0.05        : 0
    faces with volume ratio of neighbour cells < 0.01      : 0
    faces with face twist < 0.02                           : 0
    faces on cells with determinant < 0.001                : 0

Removing zero-sized patches:
    allBoundary type patch at position 0

Refined mesh : cells:114368  faces:376913  points:149368
Cells per refinement level:
    0	32343
    1	12591
    2	64932
    3	4502
Writing mesh to time constant
Wrote mesh in = 4.4 s.
Mesh refined in = 408.39 s.
Checking final mesh ...
Checking faces in error :
    non-orthogonality > 65  degrees                        : 0
    faces with face pyramid volume < 1e-13                 : 0
    faces with face-decomposition tet quality < 1e-15      : 0
    faces with concavity > 80  degrees                     : 0
    faces with skewness > 4   (internal) or 20  (boundary) : 0
    faces with interpolation weights (0..1)  < 0.05        : 0
    faces with volume ratio of neighbour cells < 0.01      : 0
    faces with face twist < 0.02                           : 0
    faces on cells with determinant < 0.001                : 0
Finished meshing without any errors
Finished meshing in = 416.11 s.
End

